LTspice 24.0.12 for Windows
Circuit: * C:\Users\iwheard\Documents\0000-arduino\glowworm-micro\circuit-modelling\battery-level-circuit.asc
Start Time: Sun Dec 14 00:02:45 2025
solver = Normal
Maximum thread count: 8
tnom = 27
temp = 27
method = modified trap
Total elapsed time: 0.031 seconds.

